<?xml version="1.0" encoding="UTF-8"?>

<!-- generated on 2025-11-02T20:55:11.847849+01:00 by Eclipse SUMO netconvert v1_24_0+1706-5c40a3e7ebb
<netconvertConfiguration xmlns:xsi="http://www.w3.org/2001/XMLSchema-instance" xsi:noNamespaceSchemaLocation="http://sumo.dlr.de/xsd/netconvertConfiguration.xsd">

    <input>
        <osm-files value="sumo-files/house.osm"/>
    </input>

    <output>
        <output-file value="sumo-files/house.net.xml"/>
    </output>

    <projection>
        <proj.utm value="true"/>
    </projection>

</netconvertConfiguration>
-->

<net version="1.20" junctionCornerDetail="5" limitTurnSpeed="5.50" xmlns:xsi="http://www.w3.org/2001/XMLSchema-instance" xsi:noNamespaceSchemaLocation="http://sumo.dlr.de/xsd/net_file.xsd">

    <location netOffset="-462250.62,-5529076.95" convBoundary="0.00,0.00,1386.25,1352.42" origBoundary="8.474139,49.912933,8.493448,49.925085" projParameter="+proj=utm +zone=32 +ellps=WGS84 +datum=WGS84 +units=m +no_defs"/>

    <type id="highway.footway" priority="1" numLanes="1" speed="2.78" allow="pedestrian" oneway="1" width="2.00"/>
    <type id="highway.living_street" priority="2" numLanes="1" speed="2.78" disallow="tram rail_urban rail rail_electric rail_fast ship container cable_car subway aircraft wheelchair scooter drone" oneway="0"/>
    <type id="highway.path" priority="1" numLanes="1" speed="5.56" allow="pedestrian bicycle" oneway="0" width="2.00"/>
    <type id="highway.pedestrian" priority="1" numLanes="1" speed="2.78" allow="pedestrian" oneway="1" width="2.00"/>
    <type id="highway.residential" priority="3" numLanes="1" speed="13.89" disallow="tram rail_urban rail rail_electric rail_fast ship container cable_car subway aircraft wheelchair scooter drone" oneway="0"/>
    <type id="highway.service" priority="1" numLanes="1" speed="5.56" allow="pedestrian delivery bicycle" oneway="0"/>
    <type id="highway.steps" priority="1" numLanes="1" speed="1.39" allow="pedestrian" oneway="1" width="2.00"/>
    <type id="highway.tertiary" priority="10" numLanes="1" speed="22.22" disallow="tram rail_urban rail rail_electric rail_fast ship container cable_car subway aircraft wheelchair scooter drone" oneway="0"/>
    <type id="railway.rail" priority="20" numLanes="1" speed="44.44" allow="rail" oneway="1"/>

    <edge id=":10053660003_0" function="internal">
        <lane id=":10053660003_0_0" index="0" allow="pedestrian bicycle" speed="6.95" length="19.42" width="2.00" shape="1172.22,676.30 1154.27,668.86"/>
    </edge>
    <edge id=":10053660003_1" function="internal">
        <lane id=":10053660003_1_0" index="0" allow="pedestrian bicycle" speed="5.44" length="11.89" width="2.00" shape="1172.22,676.30 1169.85,674.11 1169.29,671.25 1170.44,668.77 1173.26,667.68"/>
    </edge>
    <edge id=":10053660003_2" function="internal">
        <lane id=":10053660003_2_0" index="0" allow="pedestrian bicycle" speed="2.89" length="2.93" width="2.00" shape="1172.22,676.30 1171.80,675.50 1171.82,674.94 1172.28,674.62 1173.18,674.54"/>
    </edge>
    <edge id=":10053660003_3" function="internal">
        <lane id=":10053660003_3_0" index="0" allow="pedestrian bicycle" speed="4.91" length="8.76" width="2.00" shape="1172.85,670.89 1170.08,671.15 1169.21,671.84 1170.24,672.97 1173.18,674.54"/>
    </edge>
    <edge id=":10053660003_4" function="internal">
        <lane id=":10053660003_4_0" index="0" disallow="tram rail_urban rail rail_electric rail_fast ship container cable_car subway aircraft wheelchair scooter drone" speed="8.33" length="18.76" shape="1172.85,670.89 1168.50,670.84 1163.44,670.55 1158.45,669.93 1154.27,668.86"/>
    </edge>
    <edge id=":10053660003_5" function="internal">
        <lane id=":10053660003_5_0" index="0" disallow="tram rail_urban rail rail_electric rail_fast ship container cable_car subway aircraft wheelchair scooter drone" speed="8.33" length="18.02" shape="1155.40,665.86 1159.46,666.90 1164.21,667.45 1169.02,667.67 1173.26,667.68"/>
    </edge>
    <edge id=":10053660003_6" function="internal">
        <lane id=":10053660003_6_0" index="0" allow="pedestrian bicycle" speed="6.95" length="19.79" width="2.00" shape="1155.40,665.86 1159.51,667.67 1164.34,670.08 1169.14,672.55 1173.18,674.54"/>
    </edge>
    <edge id=":10292389968_0" function="internal">
        <lane id=":10292389968_0_0" index="0" disallow="tram rail_urban rail rail_electric rail_fast ship container cable_car subway aircraft wheelchair scooter drone" speed="8.33" length="4.39" shape="1076.96,460.82 1073.66,457.92"/>
    </edge>
    <edge id=":10292389968_1" function="internal">
        <lane id=":10292389968_1_0" index="0" disallow="tram rail_urban rail rail_electric rail_fast ship container cable_car subway aircraft wheelchair scooter drone" speed="8.33" length="4.39" shape="1075.77,455.52 1079.07,458.41"/>
    </edge>
    <edge id=":11051471042_0" function="internal">
        <lane id=":11051471042_0_0" index="0" allow="pedestrian delivery bicycle" speed="5.02" length="5.02" shape="724.94,719.48 724.58,718.15 723.88,717.26 722.84,716.82 721.46,716.82"/>
    </edge>
    <edge id=":11051471042_1" function="internal">
        <lane id=":11051471042_1_0" index="0" allow="pedestrian delivery bicycle" speed="6.91" length="10.16" shape="724.94,719.48 724.98,716.68 725.89,714.55 727.67,713.09 730.31,712.31"/>
    </edge>
    <edge id=":11051471042_2" function="internal">
        <lane id=":11051471042_2_0" index="0" allow="pedestrian delivery bicycle" speed="3.65" length="4.67" shape="724.94,719.48 725.59,718.19 726.33,717.69 727.18,717.99 728.12,719.08"/>
    </edge>
    <edge id=":11051471042_3" function="internal">
        <lane id=":11051471042_3_0" index="0" allow="pedestrian delivery bicycle" speed="5.10" length="5.07" shape="730.76,715.48 729.46,715.87 728.58,716.60 728.14,717.67 728.12,719.08"/>
    </edge>
    <edge id=":11051471042_4" function="internal">
        <lane id=":11051471042_4_0" index="0" disallow="tram rail_urban rail rail_electric rail_fast ship container cable_car subway aircraft wheelchair scooter drone" speed="8.33" length="9.40" shape="730.76,715.48 721.46,716.82"/>
    </edge>
    <edge id=":11051471042_5" function="internal">
        <lane id=":11051471042_5_0" index="0" disallow="tram rail_urban rail rail_electric rail_fast ship container cable_car subway aircraft wheelchair scooter drone" speed="8.33" length="9.40" shape="721.00,713.65 730.31,712.31"/>
    </edge>
    <edge id=":11051471042_6" function="internal">
        <lane id=":11051471042_6_0" index="0" allow="pedestrian delivery bicycle" speed="6.85" length="3.28" shape="721.00,713.65 723.82,713.65 724.24,713.83"/>
    </edge>
    <edge id=":11051471042_7" function="internal">
        <lane id=":11051471042_7_0" index="0" allow="pedestrian delivery bicycle" speed="6.85" length="6.97" shape="724.24,713.83 725.94,714.56 727.38,716.37 728.12,719.08"/>
    </edge>
    <edge id=":11051471045_0" function="internal">
        <lane id=":11051471045_0_0" index="0" allow="pedestrian delivery bicycle" speed="3.65" length="4.67" shape="735.43,748.25 735.25,749.68 734.72,750.40 733.82,750.40 732.57,749.69"/>
    </edge>
    <edge id=":11136803016_0" function="internal">
        <lane id=":11136803016_0_0" index="0" allow="pedestrian delivery bicycle" speed="5.56" length="7.73" shape="864.28,939.06 865.07,941.03 865.04,942.78 864.19,944.31 862.53,945.62"/>
    </edge>
    <edge id=":11136803016_1" function="internal">
        <lane id=":11136803016_1_0" index="0" allow="pedestrian delivery bicycle" speed="3.90" length="2.58" shape="860.92,942.85 861.48,942.41 861.76,941.90 861.77,941.32 861.51,940.66"/>
    </edge>
    <edge id=":11136803017_0" function="internal">
        <lane id=":11136803017_0_0" index="0" allow="pedestrian delivery bicycle" speed="6.13" length="7.79" shape="846.68,914.95 846.33,913.56 846.85,912.11 848.24,910.59 850.49,909.00"/>
    </edge>
    <edge id=":11136803017_1" function="internal">
        <lane id=":11136803017_1_0" index="0" allow="pedestrian delivery bicycle" speed="3.65" length="4.67" shape="846.68,914.95 846.78,913.51 847.27,912.76 848.16,912.71 849.46,913.35"/>
    </edge>
    <edge id=":11136803017_2" function="internal">
        <lane id=":11136803017_2_0" index="0" disallow="tram rail_urban rail rail_electric rail_fast ship container cable_car subway aircraft wheelchair scooter drone" speed="8.33" length="9.40" shape="842.44,913.85 850.49,909.00"/>
    </edge>
    <edge id=":11136803017_3" function="internal">
        <lane id=":11136803017_3_0" index="0" allow="pedestrian delivery bicycle" speed="6.06" length="7.81" shape="842.44,913.85 844.91,912.59 846.90,912.09 848.42,912.34 849.46,913.35"/>
    </edge>
    <edge id=":11136804531_0" function="internal">
        <lane id=":11136804531_0_0" index="0" allow="pedestrian delivery bicycle" speed="4.75" length="4.03" shape="634.03,1083.16 633.22,1081.90 632.47,1081.08 631.77,1080.70 631.15,1080.75"/>
    </edge>
    <edge id=":11136804531_1" function="internal">
        <lane id=":11136804531_1_0" index="0" allow="pedestrian delivery bicycle" speed="6.82" length="10.41" shape="634.03,1083.16 632.98,1080.49 633.06,1078.15 634.28,1076.17 636.64,1074.52"/>
    </edge>
    <edge id=":11136804531_2" function="internal">
        <lane id=":11136804531_2_0" index="0" allow="pedestrian delivery bicycle" speed="3.65" length="4.67" shape="634.03,1083.16 634.13,1081.72 634.63,1080.98 635.52,1080.93 636.81,1081.58"/>
    </edge>
    <edge id=":11136804531_3" function="internal">
        <lane id=":11136804531_3_0" index="0" allow="pedestrian delivery bicycle" speed="4.99" length="5.06" shape="638.08,1077.38 636.93,1078.18 636.34,1079.14 636.30,1080.28 636.81,1081.58"/>
    </edge>
    <edge id=":11136804531_4" function="internal">
        <lane id=":11136804531_4_0" index="0" disallow="tram rail_urban rail rail_electric rail_fast ship container cable_car subway aircraft wheelchair scooter drone" speed="8.33" length="7.71" shape="638.08,1077.38 631.15,1080.75"/>
    </edge>
    <edge id=":11136804531_5" function="internal">
        <lane id=":11136804531_5_0" index="0" disallow="tram rail_urban rail rail_electric rail_fast ship container cable_car subway aircraft wheelchair scooter drone" speed="8.33" length="7.59" shape="629.81,1077.84 636.64,1074.52"/>
    </edge>
    <edge id=":11136804531_6" function="internal">
        <lane id=":11136804531_6_0" index="0" allow="pedestrian delivery bicycle" speed="6.63" length="2.22" shape="629.81,1077.84 631.70,1077.41 631.98,1077.49"/>
    </edge>
    <edge id=":11136804531_7" function="internal">
        <lane id=":11136804531_7_0" index="0" allow="pedestrian delivery bicycle" speed="6.63" length="6.57" shape="631.98,1077.49 633.49,1077.89 635.20,1079.28 636.81,1081.58"/>
    </edge>
    <edge id=":11139677921_0" function="internal">
        <lane id=":11139677921_0_0" index="0" allow="pedestrian delivery bicycle" speed="3.65" length="4.67" shape="804.11,853.27 804.21,854.71 803.82,855.52 802.94,855.69 801.57,855.23"/>
    </edge>
    <edge id=":11139677922_0" function="internal">
        <lane id=":11139677922_0_0" index="0" allow="pedestrian delivery bicycle" speed="5.40" length="5.39" shape="790.15,840.46 789.04,839.33 787.90,838.74 786.71,838.69 785.48,839.18"/>
    </edge>
    <edge id=":11139677922_1" function="internal">
        <lane id=":11139677922_1_0" index="0" allow="pedestrian delivery bicycle" speed="5.56" length="10.45" shape="790.15,840.46 788.69,837.92 788.44,835.59 789.39,833.48 791.53,831.58"/>
    </edge>
    <edge id=":11139677922_2" function="internal">
        <lane id=":11139677922_2_0" index="0" allow="pedestrian delivery bicycle" speed="3.65" length="4.67" shape="790.15,840.46 790.05,839.02 790.43,838.22 791.31,838.04 792.68,838.50"/>
    </edge>
    <edge id=":11139677922_3" function="internal">
        <lane id=":11139677922_3_0" index="0" allow="pedestrian delivery bicycle" speed="4.81" length="4.74" shape="793.02,834.43 792.13,835.25 791.77,836.21 791.96,837.29 792.68,838.50"/>
    </edge>
    <edge id=":11139677922_4" function="internal">
        <lane id=":11139677922_4_0" index="0" allow="pedestrian delivery bicycle" speed="5.56" length="8.91" shape="793.02,834.43 785.48,839.18"/>
    </edge>
    <edge id=":11139677922_5" function="internal">
        <lane id=":11139677922_5_0" index="0" allow="pedestrian delivery bicycle" speed="3.66" length="4.70" shape="793.02,834.43 791.58,834.28 790.85,833.75 790.84,832.85 791.53,831.58"/>
    </edge>
    <edge id=":11139677922_6" function="internal">
        <lane id=":11139677922_6_0" index="0" allow="pedestrian delivery bicycle" speed="5.56" length="9.13" shape="783.81,836.45 791.53,831.58"/>
    </edge>
    <edge id=":11139677922_7" function="internal">
        <lane id=":11139677922_7_0" index="0" allow="pedestrian delivery bicycle" speed="5.56" length="10.13" shape="783.81,836.45 786.22,835.45 788.50,835.46 790.66,836.48 792.68,838.50"/>
    </edge>
    <edge id=":11139677922_8" function="internal">
        <lane id=":11139677922_8_0" index="0" allow="pedestrian delivery bicycle" speed="3.65" length="4.67" shape="783.81,836.45 785.25,836.51 786.01,836.98 786.09,837.87 785.48,839.18"/>
    </edge>
    <edge id=":11139677931_0" function="internal">
        <lane id=":11139677931_0_0" index="0" allow="pedestrian delivery bicycle" speed="3.65" length="4.67" shape="810.26,850.87 810.31,852.31 809.89,853.10 809.01,853.24 807.66,852.73"/>
    </edge>
    <edge id=":11139677933_0" function="internal">
        <lane id=":11139677933_0_0" index="0" allow="pedestrian delivery bicycle" speed="5.01" length="5.03" shape="773.56,846.42 772.49,847.30 771.97,848.31 772.00,849.44 772.58,850.70"/>
    </edge>
    <edge id=":11139677933_1" function="internal">
        <lane id=":11139677933_1_0" index="0" allow="pedestrian delivery bicycle" speed="3.65" length="4.67" shape="773.56,846.42 772.12,846.36 771.36,845.89 771.29,845.00 771.90,843.69"/>
    </edge>
    <edge id=":11139677933_2" function="internal">
        <lane id=":11139677933_2_0" index="0" allow="pedestrian delivery bicycle" speed="5.13" length="5.11" shape="767.49,842.79 768.38,843.81 769.42,844.30 770.59,844.26 771.90,843.69"/>
    </edge>
    <edge id=":11139677933_3" function="internal">
        <lane id=":11139677933_3_0" index="0" disallow="tram rail_urban rail rail_electric rail_fast ship container cable_car subway aircraft wheelchair scooter drone" speed="8.33" length="9.40" shape="767.49,842.79 772.58,850.70"/>
    </edge>
    <edge id=":11254752422_0" function="internal">
        <lane id=":11254752422_0_0" index="0" allow="pedestrian delivery bicycle" speed="5.03" length="5.01" shape="932.94,854.25 933.84,855.29 934.86,855.78 935.99,855.73 937.23,855.15"/>
    </edge>
    <edge id=":11254752422_1" function="internal">
        <lane id=":11254752422_1_0" index="0" disallow="tram rail_urban rail rail_electric rail_fast ship container cable_car subway aircraft wheelchair scooter drone" speed="8.33" length="6.20" shape="932.05,858.56 937.23,855.15"/>
    </edge>
    <edge id=":11254752424_0" function="internal">
        <lane id=":11254752424_0_0" index="0" allow="pedestrian delivery bicycle" speed="5.00" length="5.05" shape="947.68,834.98 946.81,833.89 945.81,833.36 944.67,833.39 943.41,833.97"/>
    </edge>
    <edge id=":11254752424_1" function="internal">
        <lane id=":11254752424_1_0" index="0" disallow="tram rail_urban rail rail_electric rail_fast ship container cable_car subway aircraft wheelchair scooter drone" speed="8.33" length="6.20" shape="947.68,834.98 944.53,829.64"/>
    </edge>
    <edge id=":11301143498_0" function="internal">
        <lane id=":11301143498_0_0" index="0" disallow="tram rail_urban rail rail_electric rail_fast ship container cable_car subway aircraft wheelchair scooter drone" speed="8.33" length="6.81" shape="504.41,1136.13 498.44,1139.40"/>
    </edge>
    <edge id=":11301143498_1" function="internal">
        <lane id=":11301143498_1_0" index="0" allow="pedestrian delivery bicycle" speed="6.95" length="6.28" shape="500.83,1133.84 500.56,1135.84 500.08,1137.44 499.37,1138.63 498.44,1139.40"/>
    </edge>
    <edge id=":11301143500_0" function="internal">
        <lane id=":11301143500_0_0" index="0" allow="pedestrian delivery bicycle" speed="3.65" length="4.67" shape="627.10,1046.01 627.34,1044.59 627.91,1043.90 628.80,1043.94 630.02,1044.71"/>
    </edge>
    <edge id=":11301143501_0" function="internal">
        <lane id=":11301143501_0_0" index="0" disallow="tram rail_urban rail rail_electric rail_fast ship container cable_car subway aircraft wheelchair scooter drone" speed="8.33" length="9.69" shape="646.55,1071.19 644.37,1073.06 642.90,1074.41 641.34,1075.59 638.84,1076.99"/>
    </edge>
    <edge id=":11301143501_1" function="internal">
        <lane id=":11301143501_1_0" index="0" allow="pedestrian delivery bicycle" speed="6.70" length="3.29" shape="646.55,1071.19 643.72,1072.86"/>
    </edge>
    <edge id=":11301143501_7" function="internal">
        <lane id=":11301143501_7_0" index="0" allow="pedestrian delivery bicycle" speed="6.70" length="8.24" shape="643.72,1072.86 641.25,1073.05 639.14,1071.75 637.38,1068.98"/>
    </edge>
    <edge id=":11301143501_2" function="internal">
        <lane id=":11301143501_2_0" index="0" allow="pedestrian delivery bicycle" speed="4.81" length="5.34" shape="640.30,1067.67 641.12,1068.95 642.10,1069.55 643.24,1069.47 644.55,1068.69"/>
    </edge>
    <edge id=":11301143501_3" function="internal">
        <lane id=":11301143501_3_0" index="0" allow="pedestrian delivery bicycle" speed="6.95" length="10.55" shape="640.30,1067.67 641.39,1070.88 641.51,1073.50 640.66,1075.54 638.84,1076.99"/>
    </edge>
    <edge id=":11301143501_4" function="internal">
        <lane id=":11301143501_4_0" index="0" allow="pedestrian delivery bicycle" speed="3.65" length="4.67" shape="640.30,1067.67 640.06,1069.09 639.50,1069.78 638.60,1069.74 637.38,1068.98"/>
    </edge>
    <edge id=":11301143501_5" function="internal">
        <lane id=":11301143501_5_0" index="0" allow="pedestrian delivery bicycle" speed="5.55" length="6.06" shape="636.85,1074.41 637.79,1073.62 638.19,1072.44 638.06,1070.90 637.38,1068.98"/>
    </edge>
    <edge id=":11301143501_6" function="internal">
        <lane id=":11301143501_6_0" index="0" disallow="tram rail_urban rail rail_electric rail_fast ship container cable_car subway aircraft wheelchair scooter drone" speed="8.33" length="9.63" shape="636.85,1074.41 639.33,1073.03 640.90,1071.87 642.37,1070.55 644.55,1068.69"/>
    </edge>
    <edge id=":11301143502_0" function="internal">
        <lane id=":11301143502_0_0" index="0" allow="pedestrian delivery bicycle" speed="3.65" length="4.67" shape="645.77,1035.40 646.07,1033.99 646.67,1033.32 647.56,1033.40 648.75,1034.22"/>
    </edge>
    <edge id=":11301143503_0" function="internal">
        <lane id=":11301143503_0_0" index="0" disallow="tram rail_urban rail rail_electric rail_fast ship container cable_car subway aircraft wheelchair scooter drone" speed="8.33" length="9.55" shape="662.98,1058.18 655.45,1064.05"/>
    </edge>
    <edge id=":11301143503_1" function="internal">
        <lane id=":11301143503_1_0" index="0" allow="pedestrian delivery bicycle" speed="6.70" length="3.53" shape="662.98,1058.18 660.08,1059.80 659.88,1059.81"/>
    </edge>
    <edge id=":11301143503_7" function="internal">
        <lane id=":11301143503_7_0" index="0" allow="pedestrian delivery bicycle" speed="6.70" length="8.10" shape="659.88,1059.81 657.60,1059.93 655.52,1058.55 653.86,1055.66"/>
    </edge>
    <edge id=":11301143503_2" function="internal">
        <lane id=":11301143503_2_0" index="0" allow="pedestrian delivery bicycle" speed="4.80" length="5.36" shape="656.83,1054.47 657.60,1055.80 658.56,1056.44 659.70,1056.38 661.04,1055.63"/>
    </edge>
    <edge id=":11301143503_3" function="internal">
        <lane id=":11301143503_3_0" index="0" allow="pedestrian delivery bicycle" speed="6.95" length="10.41" shape="656.83,1054.47 657.71,1057.48 657.77,1060.07 657.02,1062.26 655.45,1064.05"/>
    </edge>
    <edge id=":11301143503_4" function="internal">
        <lane id=":11301143503_4_0" index="0" allow="pedestrian delivery bicycle" speed="3.65" length="4.67" shape="656.83,1054.47 656.54,1055.89 655.94,1056.55 655.05,1056.48 653.86,1055.66"/>
    </edge>
    <edge id=":11301143503_5" function="internal">
        <lane id=":11301143503_5_0" index="0" allow="pedestrian delivery bicycle" speed="6.22" length="6.32" shape="653.45,1061.55 654.26,1060.55 654.60,1059.24 654.47,1057.61 653.86,1055.66"/>
    </edge>
    <edge id=":11301143503_6" function="internal">
        <lane id=":11301143503_6_0" index="0" disallow="tram rail_urban rail rail_electric rail_fast ship container cable_car subway aircraft wheelchair scooter drone" speed="8.33" length="9.63" shape="653.45,1061.55 661.04,1055.63"/>
    </edge>
    <edge id=":11301143504_0" function="internal">
        <lane id=":11301143504_0_0" index="0" allow="pedestrian delivery bicycle" speed="3.65" length="4.67" shape="642.28,1101.69 642.08,1103.12 641.54,1103.83 640.65,1103.82 639.40,1103.09"/>
    </edge>
    <edge id=":11301143508_0" function="internal">
        <lane id=":11301143508_0_0" index="0" allow="pedestrian delivery bicycle" speed="5.56" length="17.75" shape="621.19,1069.93 619.24,1066.24 616.69,1062.28 614.15,1058.32 612.24,1054.62"/>
    </edge>
    <edge id=":11301143508_1" function="internal">
        <lane id=":11301143508_1_0" index="0" allow="pedestrian delivery bicycle" speed="5.56" length="16.15" shape="621.19,1069.93 620.06,1066.20 619.40,1062.11 618.98,1057.97 618.57,1054.04"/>
    </edge>
    <edge id=":11301143508_2" function="internal">
        <lane id=":11301143508_2_0" index="0" allow="pedestrian delivery bicycle" speed="3.65" length="4.67" shape="621.19,1069.93 621.46,1068.51 622.05,1067.84 622.94,1067.90 624.14,1068.69"/>
    </edge>
    <edge id=":11301143508_3" function="internal">
        <lane id=":11301143508_3_0" index="0" allow="pedestrian delivery bicycle" speed="5.56" length="15.31" shape="621.74,1053.63 622.12,1057.43 622.46,1061.29 623.04,1065.09 624.14,1068.69"/>
    </edge>
    <edge id=":11301143508_4" function="internal">
        <lane id=":11301143508_4_0" index="0" allow="pedestrian delivery bicycle" speed="5.56" length="13.30" shape="621.74,1053.63 620.82,1056.70 617.99,1057.95 614.65,1057.28 612.24,1054.62"/>
    </edge>
    <edge id=":11301143508_5" function="internal">
        <lane id=":11301143508_5_0" index="0" allow="pedestrian delivery bicycle" speed="3.65" length="4.67" shape="621.74,1053.63 621.10,1054.92 620.36,1055.42 619.52,1055.13 618.57,1054.04"/>
    </edge>
    <edge id=":11301143508_6" function="internal">
        <lane id=":11301143508_6_0" index="0" allow="pedestrian delivery bicycle" speed="5.56" length="13.03" shape="614.94,1052.76 617.08,1057.60 618.40,1059.42 618.89,1058.23 618.57,1054.04"/>
    </edge>
    <edge id=":11301143508_7" function="internal">
        <lane id=":11301143508_7_0" index="0" allow="pedestrian delivery bicycle" speed="5.56" length="18.42" shape="614.94,1052.76 616.89,1056.56 619.52,1060.74 622.15,1064.91 624.14,1068.69"/>
    </edge>
    <edge id=":11301143508_8" function="internal">
        <lane id=":11301143508_8_0" index="0" allow="pedestrian delivery bicycle" speed="3.68" length="4.79" shape="614.94,1052.76 614.96,1054.24 614.52,1055.04 613.61,1055.17 612.24,1054.62"/>
    </edge>
    <edge id=":11301143521_0" function="internal">
        <lane id=":11301143521_0_0" index="0" allow="pedestrian delivery bicycle" speed="5.56" length="2.12" shape="618.54,1053.84 618.76,1055.95"/>
    </edge>
    <edge id=":11301143521_1" function="internal">
        <lane id=":11301143521_1_0" index="0" allow="pedestrian delivery bicycle" speed="5.56" length="1.31" shape="621.72,1054.74 621.72,1053.43"/>
    </edge>
    <edge id=":11301143522_0" function="internal">
        <lane id=":11301143522_0_0" index="0" allow="pedestrian delivery bicycle" speed="3.65" length="4.67" shape="583.26,1029.04 581.93,1028.49 581.38,1027.78 581.62,1026.92 582.64,1025.90"/>
    </edge>
    <edge id=":11301143524_0" function="internal">
        <lane id=":11301143524_0_0" index="0" allow="pedestrian delivery bicycle" speed="3.65" length="4.67" shape="587.52,1046.39 586.19,1045.84 585.64,1045.13 585.88,1044.27 586.90,1043.25"/>
    </edge>
    <edge id=":11301143526_0" function="internal">
        <lane id=":11301143526_0_0" index="0" allow="pedestrian delivery bicycle" speed="5.56" length="7.33" shape="600.65,1033.43 600.23,1031.29 599.86,1029.84 599.25,1028.47 598.15,1026.61"/>
    </edge>
    <edge id=":11301143526_1" function="internal">
        <lane id=":11301143526_1_0" index="0" allow="pedestrian delivery bicycle" speed="5.56" length="9.34" shape="600.65,1033.43 600.46,1030.76 601.07,1028.66 602.47,1027.13 604.67,1026.17"/>
    </edge>
    <edge id=":11301143526_2" function="internal">
        <lane id=":11301143526_2_0" index="0" allow="pedestrian delivery bicycle" speed="3.65" length="4.67" shape="600.65,1033.43 601.20,1032.09 601.90,1031.55 602.77,1031.78 603.78,1032.81"/>
    </edge>
    <edge id=":11301143526_3" function="internal">
        <lane id=":11301143526_3_0" index="0" allow="pedestrian delivery bicycle" speed="4.88" length="4.40" shape="605.48,1029.26 604.52,1029.71 603.92,1030.45 603.67,1031.48 603.78,1032.81"/>
    </edge>
    <edge id=":11301143526_4" function="internal">
        <lane id=":11301143526_4_0" index="0" allow="pedestrian delivery bicycle" speed="5.56" length="8.41" shape="605.48,1029.26 603.19,1029.57 601.21,1029.24 599.53,1028.25 598.15,1026.61"/>
    </edge>
    <edge id=":11301143526_5" function="internal">
        <lane id=":11301143526_5_0" index="0" allow="pedestrian delivery bicycle" speed="3.65" length="4.67" shape="605.48,1029.26 604.11,1028.79 603.53,1028.12 603.71,1027.24 604.67,1026.17"/>
    </edge>
    <edge id=":11301143526_6" function="internal">
        <lane id=":11301143526_6_0" index="0" allow="pedestrian delivery bicycle" speed="5.41" length="4.55" shape="600.72,1024.69 601.48,1025.59 602.38,1026.14 603.45,1026.33 604.67,1026.17"/>
    </edge>
    <edge id=":11301143526_7" function="internal">
        <lane id=":11301143526_7_0" index="0" allow="pedestrian delivery bicycle" speed="5.56" length="8.76" shape="600.72,1024.69 602.05,1026.91 602.80,1028.53 603.27,1030.26 603.78,1032.81"/>
    </edge>
    <edge id=":11301143526_8" function="internal">
        <lane id=":11301143526_8_0" index="0" allow="pedestrian delivery bicycle" speed="3.65" length="4.69" shape="600.72,1024.69 600.80,1026.13 600.40,1026.93 599.52,1027.09 598.15,1026.61"/>
    </edge>
    <edge id=":11301143527_0" function="internal">
        <lane id=":11301143527_0_0" index="0" allow="pedestrian delivery bicycle" speed="5.00" length="4.41" shape="608.84,1031.68 608.19,1030.41 607.44,1029.57 606.60,1029.17 605.67,1029.21"/>
    </edge>
    <edge id=":11301143527_1" function="internal">
        <lane id=":11301143527_1_0" index="0" allow="pedestrian delivery bicycle" speed="5.56" length="9.44" shape="608.84,1031.68 607.92,1029.05 607.56,1027.17 607.36,1025.25 606.92,1022.47"/>
    </edge>
    <edge id=":11301143527_2" function="internal">
        <lane id=":11301143527_2_0" index="0" allow="pedestrian delivery bicycle" speed="3.67" length="4.76" shape="608.84,1031.68 609.40,1030.32 610.12,1029.76 610.99,1030.00 612.03,1031.03"/>
    </edge>
    <edge id=":11301143527_3" function="internal">
        <lane id=":11301143527_3_0" index="0" allow="pedestrian delivery bicycle" speed="5.56" length="9.43" shape="610.06,1021.85 610.50,1024.62 610.72,1026.54 611.10,1028.41 612.03,1031.03"/>
    </edge>
    <edge id=":11301143527_4" function="internal">
        <lane id=":11301143527_4_0" index="0" allow="pedestrian delivery bicycle" speed="5.56" length="9.65" shape="610.06,1021.85 610.22,1024.52 609.55,1026.64 608.03,1028.21 605.67,1029.21"/>
    </edge>
    <edge id=":11301143527_5" function="internal">
        <lane id=":11301143527_5_0" index="0" allow="pedestrian delivery bicycle" speed="3.65" length="4.67" shape="610.06,1021.85 609.51,1023.18 608.80,1023.73 607.94,1023.49 606.92,1022.47"/>
    </edge>
    <edge id=":11301143527_6" function="internal">
        <lane id=":11301143527_6_0" index="0" allow="pedestrian delivery bicycle" speed="5.01" length="4.71" shape="604.86,1026.12 605.98,1025.63 606.70,1024.86 607.01,1023.81 606.92,1022.47"/>
    </edge>
    <edge id=":11301143527_7" function="internal">
        <lane id=":11301143527_7_0" index="0" allow="pedestrian delivery bicycle" speed="5.56" length="9.60" shape="604.86,1026.12 607.06,1025.97 608.99,1026.74 610.65,1028.43 612.03,1031.03"/>
    </edge>
    <edge id=":11301143527_8" function="internal">
        <lane id=":11301143527_8_0" index="0" allow="pedestrian delivery bicycle" speed="3.65" length="4.67" shape="604.86,1026.12 606.23,1026.59 606.81,1027.26 606.63,1028.13 605.67,1029.21"/>
    </edge>
    <edge id=":11301143528_0" function="internal">
        <lane id=":11301143528_0_0" index="0" allow="pedestrian delivery bicycle" speed="3.65" length="4.67" shape="605.45,1015.09 606.00,1013.76 606.71,1013.21 607.57,1013.45 608.59,1014.47"/>
    </edge>
    <edge id=":11301143529_0" function="internal">
        <lane id=":11301143529_0_0" index="0" allow="pedestrian delivery bicycle" speed="3.65" length="4.67" shape="537.97,1052.44 539.31,1052.95 539.88,1053.65 539.67,1054.52 538.67,1055.56"/>
    </edge>
    <edge id=":11301143532_0" function="internal">
        <lane id=":11301143532_0_0" index="0" allow="pedestrian delivery bicycle" speed="4.95" length="5.12" shape="560.55,1041.95 560.19,1040.58 559.48,1039.70 558.41,1039.30 556.99,1039.39"/>
    </edge>
    <edge id=":11301143532_1" function="internal">