<?xml version="1.0" encoding="UTF-8"?>

<!-- generated on 2025-11-02 20:55:59.073177 by Eclipse SUMO randomTrips.py v1_24_0+1706-5c40a3e7ebb
<configuration>
    <net-file value="sumo-files/house.net.xml"/>
    <route-file value="sumo-files/house.rou.xml"/>
    <end value="50.0"/>
</configuration>
-->

<!-- generated on 2025-11-02T20:55:59.040168+01:00 by Eclipse SUMO duarouter v1_24_0+1706-5c40a3e7ebb
<duarouterConfiguration xmlns:xsi="http://www.w3.org/2001/XMLSchema-instance" xsi:noNamespaceSchemaLocation="http://sumo.dlr.de/xsd/duarouterConfiguration.xsd">

    <input>
        <net-file value="sumo-files/house.net.xml"/>
        <route-files value="trips.trips.xml"/>
    </input>

    <output>
        <output-file value="sumo-files/house.rou.xml"/>
        <alternatives-output value="NUL"/>
    </output>

    <time>
        <begin value="0"/>
        <end value="50.0"/>
    </time>

    <report>
        <no-warnings value="true"/>
        <ignore-errors value="true"/>
        <no-step-log value="true"/>
    </report>

</duarouterConfiguration>
-->

<routes xmlns:xsi="http://www.w3.org/2001/XMLSchema-instance" xsi:noNamespaceSchemaLocation="http://sumo.dlr.de/xsd/routes_file.xsd">
    <vehicle id="0" depart="0.00">
        <route edges="154912711#1 154912711#2 425915195#0 425915195#1 154912710#0 154912710#1 1331278065 154912724#0 154912724#1 -12825511#4"/>
    </vehicle>
    <vehicle id="1" depart="1.00">
        <route edges="-23612911#1 -23515585#1 -154912731#0 892250035 425915194#0 425915194#1 425915194#2 1418715185#0 1418715185#1 1418715185#2 -269606917#3 -269606917#2 -269606917#1 -269606917#0 -269606915 -13397085#4 -13397085#3 23515596#3 -23515596#3"/>
    </vehicle>
    <vehicle id="2" depart="2.00">
        <route edges="23515590#1 -13409942#1 -13409942#0 -892250035 154912731#0"/>
    </vehicle>
    <vehicle id="3" depart="3.00">
        <route edges="381923057#0 381923057#1 23612947 12825514#2 12825514#3 12825514#4 12825514#5 46871393 -40585971#1 -40585971#0 -176763421 -23612991 154912724#0 154912724#1 150511161#0 150511161#1 150511161#2 150511161#3 150511161#4 663494167#1 154912701#0 154912701#1 154912701#2 154912722 1271155304#0 1271155304#1 1271155304#2 1271155304#3 1271155304#4 364813495#0 364813495#1 364813495#2 364813495#3 364813495#4 364813495#5 -13409946"/>
    </vehicle>
    <vehicle id="4" depart="4.00">
        <route edges="1087542539#1 13411622#0 13411622#1 13411622#2 -1271155304#4 -1271155304#3 -1271155304#2 -1271155304#1 -1271155304#0 -154912722 154912700#0 154912700#1 154912700#2 154912711#0 154912711#1 154912711#2 25709538#0 25709538#1 -364813499#2 -364813499#1 -364813499#0 -269606917#3 -269606917#2 -269606917#1 -269606917#0 -269606915 -13397085#4 -13397085#3 -23515596#2 -23515596#1 -23515596#0 -12827680#1"/>
    </vehicle>
    <vehicle id="5" depart="5.00">
        <route edges="-23515596#1 -23515596#0 -12827680#1 -12827680#0 -1313748804 -128444925#3 -128444925#2 -128444925#1 -13409942#3 -13409942#2 -13409942#1 -13409942#0 -425915197 -893350162 154912730#0 154912730#1 13409946 13411626#0 13411626#1 13411626#2 1315475659 1315475660#0 1315475660#1 1315475660#2"/>
    </vehicle>
    <vehicle id="6" depart="6.00">
        <route edges="-12825511#2 -12825511#1 -23612653#3 23515656#1 23612708#1 23433399#3 23433399#4 23433399#5 150511164#2 150511164#3 150511164#4 -23433423#3"/>
    </vehicle>
    <vehicle id="7" depart="7.00">
        <route edges="154912717 154912716 154912719#0 154912719#1 154912719#2 154912719#3 4609823#0 4609823#1 4609823#2 4609823#3 4609823#4 4609823#5 4609823#6 43199685 176763424 895830493 43199684#0 43199684#1 43199684#2 43199684#3 43199684#4 43199684#5 4609822#0 4609822#1 154912708#0 154912708#1 13409946 -364813495#5 -364813495#4 -364813495#3 -364813495#2 -364813495#1 -364813495#0 -13411622#2 -13411622#1 13411622#1"/>
    </vehicle>
    <vehicle id="8" depart="8.00">
        <route edges="-23515596#2 -23515596#1 -23515596#0 -12827680#1 -12827680#0 -1313748804 -128444925#3 -128444925#2 -128444925#1 -13409942#3 -13409942#2 -13409942#1 -13409942#0 -425915197 425915196#0 425915196#1 4609822#0 4609822#1 154912711#0 154912711#1 154912711#2 425915195#0 425915195#1 154912710#0 154912710#1 1331278065 154912724#0 154912724#1 150511161#0 150511161#1 150511161#2"/>
    </vehicle>
    <vehicle id="9" depart="9.00">
        <route edges="23612914 -23612914 -13409941#2 -13409941#1 -13409941#0 -1315475660#2 -1315475660#1 -1315475660#0 -1315475659 -13411626#2 -13411626#1 -13411626#0 -364813495#5 -364813495#4 -364813495#3 -364813495#2 -364813495#1 -364813495#0 -1271155304#4 -1271155304#3 -1271155304#2 -1271155304#1"/>
    </vehicle>
    <vehicle id="10" depart="10.00">
        <route edges="23612911#1 23612911#2 -23612911#2 -23612911#1 -23515585#1 -154912731#0 -23612914 154912730#0 154912730#1 -154912708#1 -154912708#0 154912711#0 154912711#1 154912711#2 425915195#0 425915195#1 154912710#0 154912710#1 1331278065 154912717 154912716 43185265#0 43185265#1 43185265#2 176763425"/>
    </vehicle>
    <vehicle id="11" depart="11.00">
        <route edges="-365943548#2 -365943548#1 -365943548#0 13411624#0 13411624#1 13411624#2 13411624#3 892250035 425915194#0 425915194#1 425915194#2 1418715185#0 1418715185#1 1418715185#2 -269606917#3 -269606917#2 -269606917#1 -269606917#0 -269606915 -13397085#4 -13397085#3 23515596#3 23515596#4 23515596#5 23515596#6 23515596#7 23515596#8 23515596#9 -4609823#1 -4609823#0 -154912719#3 -154912719#2"/>
    </vehicle>
    <vehicle id="12" depart="12.00">
        <route edges="45269497#1 45269497#2 -1418715185#1 -1418715185#0 -425915194#2 -425915194#1 -425915194#0 -892250035 -13411624#3 -13411624#2 -13411624#1 -13411624#0 365943548#0 365943548#1 365943548#2 -365943548#2 -365943548#1 -365943548#0"/>
    </vehicle>
    <vehicle id="13" depart="13.00">
        <route edges="-13409946 -154912730#1 -154912730#0 23612914 -13411624#3 -13411624#2 -13411624#1"/>
    </vehicle>
    <vehicle id="14" depart="14.00">
        <route edges="269606917#2 269606917#3 364813499#0 364813499#1 364813499#2 43199684#1 43199684#2 43199684#3 43199684#4 43199684#5 4609822#0 4609822#1 154912711#0 154912711#1 154912711#2 425915195#0 425915195#1 154912710#0 154912710#1 1331278065 154912724#0 154912724#1 150511164#0 150511164#1 150511164#2 150511164#3 150511164#4"/>
    </vehicle>
    <vehicle id="15" depart="15.00">
        <route edges="23612911#1 23612911#2 -23612911#2 -23612911#1 -23515585#1 154912731#1 23515590#0"/>
    </vehicle>
    <vehicle id="16" depart="16.00">
        <route edges="13409942#2 13409942#3 128444925#1 128444925#2 128444925#3 1313748804 12827680#0 12827680#1 23515596#0 23515596#1 23515596#2 23515596#3 23515596#4 23515596#5 23515596#6 23515596#7 23515596#8 23515596#9 4609823#2"/>
    </vehicle>
    <vehicle id="17" depart="17.00">
        <route edges="-43185266 -176763425 43199564 1345396782 176763424 895830493 43199684#0 43199684#1 43199684#2 43199684#3 43199684#4 43199684#5 -425915196#1 -425915196#0 -893350162 -13409941#2 -13409941#1 -13409941#0 1313515438 28540643#0 28540643#1 13411624#0 13411624#1"/>
    </vehicle>
    <vehicle id="18" depart="18.00">
        <route edges="256979997 1213851305 1232608250 1232608253 1232608252 1232608251 1228254743 40585970 296399533 -150511663#1 -150511663#0 4609823#0 4609823#1 4609823#2 4609823#3 4609823#4 4609823#5 4609823#6 43199685 176763424 895830493 43199684#0 43199684#1 43199684#2 43199684#3 43199684#4 43199684#5 4609822#0 4609822#1 154912708#0 154912708#1 13409946 -364813495#5 -364813495#4 -364813495#3 -364813495#2 -364813495#1 -364813495#0 -1271155304#4 -1271155304#3 -1271155304#2 -1271155304#1 -1271155304#0 -154912722 154912700#0 154912700#1 154912700#2"/>
    </vehicle>
    <vehicle id="19" depart="19.00">
        <route edges="364813495#1 364813495#2 364813495#3 364813495#4 364813495#5 -13409946 -154912730#1 -154912730#0 893350162 425915197 425915194#0 425915194#1 425915194#2 1418715185#0 1418715185#1"/>
    </vehicle>
    <vehicle id="20" depart="20.00">
        <route edges="23433399#0 23612653#2 23612653#3 12825511#1 12825511#2 12825511#3 12825511#4 150511161#0 150511161#1 150511161#2 150511161#3 150511161#4 663494167#1 154912701#0 154912701#1 154912701#2 154912700#0 154912700#1 154912700#2 154912711#0 154912711#1 154912711#2 25709538#0 25709538#1 -364813499#2 -364813499#1 -364813499#0 -269606917#3 -269606917#2 -269606917#1 -269606917#0 -269606915 -13397085#4 -13397085#3 -13397085#2 -13397085#1 -13397085#0 -1313748640#1"/>
    </vehicle>
    <vehicle id="21" depart="21.00">
        <route edges="-23515596#5 -23515596#4 23515596#4 23515596#5 23515596#6 23515596#7 23515596#8 23515596#9 -4609823#1 -4609823#0 381923051#0 381923051#1 381923051#2 705934774 154912740#0 154912740#1 154912740#2 154912740#3 154912740#4 381923057#0 381923057#1 23612947 12825514#2 12825514#3 12825514#4 12825514#5 46871393 -40585971#1 -40585971#0 -176763421 -23612991"/>
    </vehicle>
    <vehicle id="22" depart="22.00">
        <route edges="-13409941#1 -13409941#0 -1315475660#2 -1315475660#1 -1315475660#0 -1315475659 -13411626#2 -13411626#1 -13411626#0 -13409946 -154912708#1 -154912708#0 154912711#0 154912711#1 154912711#2 425915195#0 425915195#1 154912710#0 154912710#1 1331278065 154912717 154912716 154912719#0 154912719#1 154912719#2 154912719#3 4609823#0 4609823#1 -23515596#9 -23515596#8 -23515596#7"/>
    </vehicle>
    <vehicle id="23" depart="23.00">
        <route edges="-13411624#0 13411624#0 13411624#1 23612911#0 -23612911#0"/>
    </vehicle>
    <vehicle id="24" depart="24.00">
        <route edges="154912710#1 1331278065 154912717 154912716 43185265#0 43185265#1 43185265#2 176763425 -176763425 -43185265#2 -43185265#1 -43185265#0"/>
    </vehicle>
    <vehicle id="25" depart="25.00">
        <route edges="-425915197 425915197 13409942#0 13409942#1 -23515590#1"/>
    </vehicle>
    <vehicle id="26" depart="26.00">
        <route edges="-23612827#0 364813495#4 364813495#5 -13409946 -154912708#1 -154912708#0 154912711#0 154912711#1 154912711#2 425915195#0 425915195#1 154912710#0 154912710#1 1331278065 154912717 154912716 43185265#0 43185265#1 43185265#2 43199564"/>
    </vehicle>
    <vehicle id="27" depart="27.00">
        <route edges="154912717 154912716 154912719#0 154912719#1 154912719#2 154912719#3 150511663#0"/>
    </vehicle>
    <vehicle id="28" depart="28.00">
        <route edges="-154912731#0 -13411624#3 -13411624#2 23612911#0 23515585#2 23515585#3"/>
    </vehicle>
    <vehicle id="29" depart="29.00">
        <route edges="-154912722 154912700#0 154912700#1 154912700#2 154912711#0 154912711#1 154912711#2 25709538#0 25709538#1 -364813499#2 -364813499#1 -364813499#0 -1418715185#2 -45269497#2 -45269497#1"/>
    </vehicle>
    <vehicle id="30" depart="30.00">
        <route edges="663494171 13411622#1 13411622#2 -1271155304#4 -1271155304#3 -1271155304#2 -1271155304#1 -1271155304#0 -154912722 154912700#0 154912700#1 154912700#2 154912711#0 154912711#1 154912711#2"/>
    </vehicle>
    <vehicle id="31" depart="31.00">
        <route edges="13411624#3 892250035 425915194#0 425915194#1 425915194#2 1418715185#0 1418715185#1 1418715185#2 -269606917#3 -269606917#2 -269606917#1 -269606917#0 -269606915 -13397085#4 -13397085#3 23515596#3 23515596#4 23515596#5 23515596#6 23515596#7 23515596#8 23515596#9 -4609823#1 -4609823#0 381923051#0 381923051#1 381923051#2 705934774 154912740#0 154912740#1"/>
    </vehicle>
    <vehicle id="32" depart="32.00">
        <route edges="269606917#0 269606917#1 269606917#2 269606917#3 364813499#0 364813499#1 364813499#2 43199684#1 43199684#2 43199684#3 43199684#4 43199684#5 4609822#0 4609822#1 154912711#0 154912711#1 154912711#2 425915195#0 425915195#1 154912710#0 154912710#1 1331278065 154912724#0 154912724#1 150511164#0 150511164#1 -23433399#5 -23433399#4 -23433399#3 23612708#2"/>
    </vehicle>
    <vehicle id="33" depart="33.00">
        <route edges="-23515596#6 -23515596#5 -23515596#4 -23515596#3 -23515596#2 -23515596#1 -23515596#0 -12827680#1 -12827680#0 -1313748804 -128444925#3 -128444925#2 -128444925#1 -128444925#0"/>
    </vehicle>
    <vehicle id="34" depart="34.00">
        <route edges="-364813495#0 -13411622#2 -13411622#1 -13411622#0 154912726#0 1087542538#0 1087542538#1 150511164#3 150511164#4 -23433423#3 -23433423#2 -23433423#1 -23612731#1 -23612735"/>
    </vehicle>
    <vehicle id="35" depart="35.00">
        <route edges="-23515590#1 23515590#1 -13409942#1 -13409942#0 425915194#0 425915194#1 425915194#2 1418715185#0 1418715185#1 1418715185#2 364813499#0 364813499#1 364813499#2 43199684#1 43199684#2"/>
    </vehicle>
    <vehicle id="36" depart="36.00">
        <route edges="364813499#1 364813499#2 43199684#1 43199684#2 43199684#3 43199684#4 43199684#5 4609822#0 4609822#1 154912708#0 154912708#1 13409946 -364813495#5 -364813495#4 -364813495#3 -364813495#2 -364813495#1 -364813495#0"/>
    </vehicle>
    <vehicle id="37" depart="37.00">
        <route edges="154912719#2 154912719#3 4609823#0 4609823#1 4609823#2 4609823#3 4609823#4 4609823#5 4609823#6 -4609823#6 -4609823#5"/>
    </vehicle>
    <vehicle id="38" depart="38.00">
        <route edges="425915195#0 425915195#1 154912710#0 154912710#1 1331278065 154912724#0 154912724#1 -12825511#4 -12825511#3 -12825511#2 -12825511#1 -12825511#0 12825514#0 12825514#1 12825514#2 12825514#3 12825514#4"/>
    </vehicle>
    <vehicle id="39" depart="39.00">
        <route edges="-23612817#1 -23612817#0 23612817#0 23612817#1 -23612827#0 -364813495#3 -364813495#2 -364813495#1 -364813495#0 -13411622#2 -13411622#1 -13411622#0 154912726#0 1087542538#0 1087542538#1 150511164#3 150511164#4 -23433423#3 -23433423#2 -23433423#1 -23612731#1 -23612735 -23612653#0"/>
    </vehicle>
    <vehicle id="40" depart="40.00">
        <route edges="13411626#1 13411626#2 1315475659 1315475660#0 1315475660#1 1315475660#2 -1315475660#2 -1315475660#1 -1315475660#0 -1315475659 -13411626#2 -13411626#1 -13411626#0 -364813495#5 -364813495#4 -364813495#3 -364813495#2 -364813495#1 -364813495#0 -13411622#2 -13411622#1 -13411622#0 154912726#0 1087542538#0 1087542538#1 150511164#3 150511164#4 -23433423#3 -23433423#2 -23433423#1 -23612731#1 -23612731#0"/>
    </vehicle>
    <vehicle id="41" depart="41.00">
        <route edges="150494633 -150494633 -13409946 -154912708#1 -154912708#0 154912711#0 154912711#1 154912711#2 425915195#0 425915195#1 154912710#0 154912710#1 1331278065 154912717 154912716 154912719#0 154912719#1 154912719#2 154912719#3 150511663#0 150511663#1 256979997 1213851305 1232608250 1232608253 1232608252 1232608251 1228254743 40585970"/>
    </vehicle>
    <vehicle id="42" depart="42.00">
        <route edges="-4609823#4 -4609823#3 -4609823#2 -23515596#9 -23515596#8 -23515596#7 -23515596#6 -23515596#5 -23515596#4 -23515596#3 -23515596#2 -23515596#1"/>
    </vehicle>
    <vehicle id="43" depart="43.00">
        <route edges="893350162 425915197 13409942#0 13409942#1 13409942#2 13409942#3 128444925#1 128444925#2 128444925#3 1313748804 1313748640#0 1313748640#1 13397085#0"/>
    </vehicle>
    <vehicle id="44" depart="44.00">
        <route edges="-13409942#3 -13409942#2 13409942#2 13409942#3 128444925#1 128444925#2 128444925#3 1313748804 -1313748804"/>
    </vehicle>
    <vehicle id="45" depart="45.00">
        <route edges="-13411624#3 -13411624#2 -13411624#1 -13411624#0 -28540643#1 -28540643#0 -1313515438 -1315475660#2 -1315475660#1 -1315475660#0 -1315475659 -13411626#2 -13411626#1 -13411626#0 -13409946 -154912708#1 -154912708#0 154912708#0"/>
    </vehicle>
    <vehicle id="46" depart="46.00">
        <route edges="23612735 -23612731#0 23433399#2 23433399#3 23433399#4 23433399#5 150511164#2 150511164#3 1087542539#0 1087542539#1 13411622#0 13411622#1 13411622#2 364813495#0 364813495#1 364813495#2 364813495#3 364813495#4 364813495#5 150494633 1271155302#0"/>
    </vehicle>
    <vehicle id="47" depart="47.00">
        <route edges="-13397085#0 -1313748640#1 -1313748640#0 12827680#0 12827680#1 23515596#0 23515596#1 23515596#2 13397085#3 13397085#4 269606915 269606917#0 269606917#1 269606917#2 269606917#3 -1418715185#2 -45269497#2"/>
    </vehicle>
    <vehicle id="48" depart="48.00">
        <route edges="893350162 -893350162 -13409941#2 -13409941#1 -13409941#0 13409941#0 13409941#1 13409941#2"/>
    </vehicle>
    <vehicle id="49" depart="49.00">
        <route edges="4609823#2 4609823#3 4609823#4 4609823#5 4609823#6 43199685 176763424 895830493 43199684#0 43199684#1 43199684#2 43199684#3 43199684#4 43199684#5 4609822#0 4609822#1 154912708#0 154912708#1 13409946 -364813495#5 -364813495#4 -364813495#3 -364813495#2 -364813495#1 -364813495#0 364813495#0 364813495#1 364813495#2 364813495#3"/>
    </vehicle>
</routes>
