<net version="1.16" xmlns:xsi="http://www.w3.org/2001/XMLSchema-instance" xsi:noNamespaceSchemaLocation="http://sumo.dlr.de/xsd/net_file.xsd">
    <node id="1" x="0.0" y="0.0" type="priority"/>
    <node id="2" x="500.0" y="0.0" type="priority"/>
    <edge id="e1" from="1" to="2" priority="78" numLanes="1" speed="13.89"/>
</net>